
#======================================================================
# CRYSTAL DATA
#----------------------------------------------------------------------
data_VESTA_phase_1

_chemical_name_common                  'SrPbS2'
_cell_length_a                         5.863000
_cell_length_b                         5.863000
_cell_length_c                         5.869000
_cell_angle_alpha                      90.000000
_cell_angle_beta                       90.000000
_cell_angle_gamma                      90.000000
_cell_volume                           201.745512
_space_group_name_H-M_alt              'P 4/m m m'
_space_group_IT_number                 123

loop_
_space_group_symop_operation_xyz
   'x, y, z'
   '-x, -y, -z'
   '-x, -y, z'
   'x, y, -z'
   '-y, x, z'
   'y, -x, -z'
   'y, -x, z'
   '-y, x, -z'
   '-x, y, -z'
   'x, -y, z'
   'x, -y, -z'
   '-x, y, z'
   'y, x, -z'
   '-y, -x, z'
   '-y, -x, -z'
   'y, x, z'

loop_
   _atom_site_label
   _atom_site_occupancy
   _atom_site_fract_x
   _atom_site_fract_y
   _atom_site_fract_z
   _atom_site_adp_type
   _atom_site_U_iso_or_equiv
   _atom_site_type_symbol
   Sr         1.0     0.000000     0.000000     0.000000    Uiso  0.050000 Sr
   Sr2        1.0     0.500000     0.500000     0.000000    Uiso  0.050000 Sr
   Pb         1.0     0.500000     0.000000     0.500000    Uiso  0.050000 Pb
   S          1.0     0.000000     0.000000     0.500000    Uiso  0.050000 S
   S          1.0     0.500000     0.500000     0.500000    Uiso  0.050000 S
   S          1.0     0.500000     0.000000     0.000000    Uiso  0.050000 S
